/*--------------------------------*- C++ -*----------------------------------*\
| =========                 |                                                 |
| \\      /  F ield         | OpenFOAM: The Open Source CFD Toolbox           |
|  \\    /   O peration     | Version:  v2012                                 |
|   \\  /    A nd           | Website:  www.openfoam.com                      |
|    \\/     M anipulation  |                                                 |
\*---------------------------------------------------------------------------*/
FoamFile
{
    version     2.0;
    format      ascii;
    class       dictionary;
    object      blockMeshDict;
}
// * * * * * * * * * * * * * * * * * * * * * * * * * * * * * * * * * * * * * //

scale   0.1;

vertices
(
    (0 0 0)  // point 0
    (1 0 0)  // point 1 
    (1 1 0)  // point 2
    (0 1 0)  // point 3
    (0 0 0.1)  // point 4
    (1 0 0.1)  // point 5
    (1 1 0.1)  // point 6
    (0 1 0.1)  // point 7
	
// Here are our new vertices
	(2 0 0)  // point 8 
    (2 1 0)  // point 9
	(2 0 0.1)  // point 10
    (2 1 0.1)  // point 11
	
	
);

blocks
(
    hex (0 1 2 3 4 5 6 7) (20 20 1) simpleGrading (1 1 1)  //first block
	hex (1 8 9 2 5 10 11 6) (20 20 1) simpleGrading (1 1 1) //second block 
);

edges
(
);

boundary
(
    zeroGradientPlanes
    {
        type patch;
        faces
        (
            (1 5 4 0)  //this is the bottom left x=0,1
			(8 9 11 10)  //this is the left side outlet x=1,2
			(3 7 6 2)  // this is x=0,1 (top y)
			(2 6 11 9) // this is x=1,2 (top y )
			
			
        );
    }

    inlet
    {
        type patch;
     	faces
        (
            (0 4 7 3)  //this is the left wall
        );
    }


    plate
    {
        type wall;
        faces
        (
            (1 8 10 5)  //this is the flat plane
        );
    }

    frontAndBack
    {
        type empty;
        faces
        (
            (0 3 2 1)  // z=0 x=0,1
            (4 5 6 7)  // z=0.1 x=0,1
			(1 2 9 8)  // z=0 x=1,2
            (5 10 11 6)  // z=0.1 x=1,2
        );
    }
);

mergePatchPairs
(
);

// ************************************************************************* //
